



         NASA-GLENN CHEMICAL EQUILIBRIUM PROGRAM CEA2, FEBRUARY 5, 2004
                   BY  BONNIE MCBRIDE AND SANFORD GORDON
      REFS: NASA RP-1311, PART I, 1994 AND NASA RP-1311, PART II, 1996

 *******************************************************************************


 ### CEA analysis performed on Fri 28-Apr-2023 16:51:02

 # Problem Type: "Rocket" (Infinite Area Combustor)

 prob case=_______________8089 ro equilibrium

 # Pressure (1 value):
 p,psia= 1500
 # Chamber/Exit Pressure Ratio (8 values):
 pi/p= 102, 68, 34, 17, 8, 4, 2, 1

 # Oxidizer/Fuel Wt. ratio (5 values):
 o/f= 1, 2, 3, 4, 5

 # You selected the following fuels and oxidizers:
 reac
 fuel RP-1              wt%=100.0000
 oxid O2(L)             wt%=100.0000

 # You selected these options for output:
 # short version of output
 output short
 # Proportions of any products will be expressed as Mass Fractions.
 output massf
 # Heat will be expressed as siunits
 output siunits

 # Input prepared by this script:/var/www/sites/cearun.grc.nasa.gov/cgi-bin/CEARU
 N/prepareInputFile.cgi

 ### IMPORTANT:  The following line is the end of your CEA input file!
 end

              THEORETICAL ROCKET PERFORMANCE ASSUMING EQUILIBRIUM

           COMPOSITION DURING EXPANSION FROM INFINITE AREA COMBUSTOR

 Pin =  1500.0 PSIA
 CASE = _______________

             REACTANT                    WT FRACTION      ENERGY      TEMP
                                          (SEE NOTE)     KJ/KG-MOL      K
 FUEL        RP-1                         1.0000000    -24717.700    298.150
 OXIDANT     O2(L)                        1.0000000    -12979.000     90.170

 O/F=    1.00000  %FUEL= 50.000000  R,EQ.RATIO= 3.405666  PHI,EQ.RATIO= 3.405666

                 CHAMBER   THROAT     EXIT     EXIT     EXIT     EXIT     EXIT     EXIT
 Pinf/P            1.0000   1.7766   102.00   68.000   34.000   17.000   8.0000   4.0000
 P, BAR            103.42   58.213   1.0139   1.5209   3.0418   6.0836   12.928   25.855
 T, K             1597.56  1459.67   968.39   999.22  1057.37  1124.38  1211.26  1309.82
 RHO, KG/CU M    1.2534 1 7.8319 0 2.3313-1 3.3482-1 6.1950-1 1.1399 0 2.1948 0 3.9706 0
 H, KJ/KG        -1087.08 -1537.03 -3815.04 -3634.83 -3307.53 -2952.79 -2530.33 -2101.25
 U, KJ/KG        -1912.24 -2280.32 -4249.97 -4089.07 -3798.54 -3486.47 -3119.36 -2752.42
 G, KJ/KG        -20082.1 -18892.6 -15329.2 -15515.5 -15879.7 -16321.7 -16932.3 -17675.1
 S, KJ/(KG)(K)    11.8900  11.8900  11.8900  11.8900  11.8900  11.8900  11.8900  11.8900

 M, (1/n)          16.098   16.328   18.513   18.290   17.905   17.517   17.098   16.725
 MW, MOL WT        15.159   15.194   14.890   14.935   15.013   15.089   15.159   15.198
 (dLV/dLP)t      -1.05092 -1.06132 -1.10441 -1.10483 -1.10321 -1.09825 -1.08887 -1.07706
 (dLV/dLT)p        1.4354   1.6034   2.7643   2.7146   2.5850   2.4010   2.1499   1.8928
 Cp, KJ/(KG)(K)    4.4309   5.5622  16.3511  15.6727  14.1584  12.2635   9.9292   7.7583
 GAMMAs            1.2334   1.2107   1.1179   1.1222   1.1311   1.1427   1.1594   1.1800
 SON VEL,M/SEC     1008.8    948.6    697.3    714.0    745.3    780.9    826.4    876.6
 MACH NUMBER        0.000    1.000    3.350    3.162    2.828    2.474    2.056    1.625

 PERFORMANCE PARAMETERS

 Ae/At                      1.0000   13.644   9.8301   5.6910   3.3740   1.9925   1.3138
 CSTAR, M/SEC               1392.0   1392.0   1392.0   1392.0   1392.0   1392.0   1392.0
 CF                         0.6815   1.6780   1.6216   1.5139   1.3877   1.2205   1.0231
 Ivac, M/SEC                1732.2   2522.0   2458.6   2340.3   2208.0   2045.7   1881.4
 Isp, M/SEC                  948.6   2335.8   2257.3   2107.3   1931.7   1699.0   1424.2

 MASS FRACTIONS

 CH3              0.00001  0.00000  0.00000  0.00000  0.00000  0.00000  0.00000  0.00000
 CH4              0.03743  0.03876  0.02806  0.02968  0.03248  0.03516  0.03760  0.03894
 *CO              0.81677  0.78608  0.44067  0.47635  0.53873  0.60195  0.66968  0.72807
 *CO2             0.01850  0.03159  0.22679  0.20411  0.16550  0.12794  0.08986  0.05926
 C2H2,acetylene   0.00002  0.00000  0.00000  0.00000  0.00000  0.00000  0.00000  0.00000
 CH2CO,ketene     0.00001  0.00000  0.00000  0.00000  0.00000  0.00000  0.00000  0.00000
 C2H4             0.00012  0.00005  0.00000  0.00000  0.00000  0.00000  0.00001  0.00002
 C2H6             0.00003  0.00002  0.00000  0.00000  0.00000  0.00000  0.00001  0.00001
 *H2              0.05836  0.05703  0.05276  0.05284  0.05309  0.05352  0.05429  0.05535
 HCHO,formaldehy  0.00002  0.00001  0.00000  0.00000  0.00000  0.00000  0.00000  0.00000
 H2O              0.02251  0.03154  0.09390  0.08952  0.08101  0.07110  0.05871  0.04621
 C(gr)            0.04621  0.05491  0.15782  0.14750  0.12920  0.11032  0.08984  0.07214

  * THERMODYNAMIC PROPERTIES FITTED TO 20000.K

 NOTE. WEIGHT FRACTION OF FUEL IN TOTAL FUELS AND OF OXIDANT IN TOTAL OXIDANTS

              THEORETICAL ROCKET PERFORMANCE ASSUMING EQUILIBRIUM

           COMPOSITION DURING EXPANSION FROM INFINITE AREA COMBUSTOR

 Pin =  1500.0 PSIA
 CASE = _______________

             REACTANT                    WT FRACTION      ENERGY      TEMP
                                          (SEE NOTE)     KJ/KG-MOL      K
 FUEL        RP-1                         1.0000000    -24717.700    298.150
 OXIDANT     O2(L)                        1.0000000    -12979.000     90.170

 O/F=    1.00000  %FUEL= 50.000000  R,EQ.RATIO= 3.405666  PHI,EQ.RATIO= 3.405666

                 CHAMBER   THROAT     EXIT     EXIT
 Pinf/P            1.0000   1.7766   2.0000   1.0000
 P, BAR            103.42   58.213   51.710   103.42
 T, K             1597.56  1459.67  1434.87  1597.56
 RHO, KG/CU M    1.2534 1 7.8319 0 7.1005 0 1.2534 1
 H, KJ/KG        -1087.08 -1537.03 -1624.18 -1087.08
 U, KJ/KG        -1912.24 -2280.32 -2352.44 -1912.24
 G, KJ/KG        -20082.1 -18892.6 -18684.7 -20082.1
 S, KJ/(KG)(K)    11.8900  11.8900  11.8900  11.8900

 M, (1/n)          16.098   16.328   16.382   16.098
 MW, MOL WT        15.159   15.194   15.198   15.159
 (dLV/dLP)t      -1.05092 -1.06132 -1.06362 -1.05092
 (dLV/dLT)p        1.4354   1.6034   1.6427   1.4354
 Cp, KJ/(KG)(K)    4.4309   5.5622   5.8441   4.4309
 GAMMAs            1.2334   1.2107   1.2059   1.2334
 SON VEL,M/SEC     1008.8    948.6    937.1   1008.8
 MACH NUMBER        0.000    1.000    1.106     -nan

 PERFORMANCE PARAMETERS

 Ae/At                      1.0000   1.0096     -nan
 CSTAR, M/SEC               1392.0   1392.0   1392.0
 CF                         0.6815   0.7446     -nan
 Ivac, M/SEC                1732.2   1739.1     -nan
 Isp, M/SEC                  948.6   1036.4     -nan

 MASS FRACTIONS

 CH3              0.00001  0.00000  0.00000  0.00001
 CH4              0.03743  0.03876  0.03891  0.03743
 *CO              0.81677  0.78608  0.77858  0.81677
 *CO2             0.01850  0.03159  0.03498  0.01850
 C2H2,acetylene   0.00002  0.00000  0.00000  0.00002
 CH2CO,ketene     0.00001  0.00000  0.00000  0.00001
 C2H4             0.00012  0.00005  0.00004  0.00012
 C2H6             0.00003  0.00002  0.00002  0.00003
 *H2              0.05836  0.05703  0.05677  0.05836
 HCHO,formaldehy  0.00002  0.00001  0.00001  0.00002
 H2O              0.02251  0.03154  0.03360  0.02251
 C(gr)            0.04621  0.05491  0.05709  0.04621

  * THERMODYNAMIC PROPERTIES FITTED TO 20000.K

 NOTE. WEIGHT FRACTION OF FUEL IN TOTAL FUELS AND OF OXIDANT IN TOTAL OXIDANTS

              THEORETICAL ROCKET PERFORMANCE ASSUMING EQUILIBRIUM

           COMPOSITION DURING EXPANSION FROM INFINITE AREA COMBUSTOR

 Pin =  1500.0 PSIA
 CASE = _______________

             REACTANT                    WT FRACTION      ENERGY      TEMP
                                          (SEE NOTE)     KJ/KG-MOL      K
 FUEL        RP-1                         1.0000000    -24717.700    298.150
 OXIDANT     O2(L)                        1.0000000    -12979.000     90.170

 O/F=    2.00000  %FUEL= 33.333333  R,EQ.RATIO= 1.702833  PHI,EQ.RATIO= 1.702833

                 CHAMBER   THROAT     EXIT     EXIT     EXIT     EXIT     EXIT     EXIT
 Pinf/P            1.0000   1.7650   102.00   68.000   34.000   17.000   8.0000   4.0000
 P, BAR            103.42   58.595   1.0139   1.5209   3.0418   6.0836   12.928   25.855
 T, K             3363.64  3099.57  1501.33  1622.99  1853.28  2111.83  2422.03  2726.83
 RHO, KG/CU M    7.7219 0 4.7787 0 1.7244-1 2.3927-1 4.1904-1 7.3527-1 1.3609 0 2.4114 0
 H, KJ/KG         -859.93 -1588.46 -5154.27 -4906.32 -4435.10 -3897.42 -3228.31 -2527.96
 U, KJ/KG        -2199.25 -2814.62 -5742.26 -5541.97 -5160.99 -4724.82 -4178.26 -3600.16
 G, KJ/KG        -40215.6 -37854.5 -22720.3 -23895.8 -26119.1 -28606.5 -31566.8 -34432.7
 S, KJ/(KG)(K)    11.7003  11.7003  11.7003  11.7003  11.7003  11.7003  11.7003  11.7003

 M, (1/n)          20.882   21.018   21.230   21.229   21.228   21.222   21.199   21.146
 MW, MOL WT        20.882   21.018   21.230   21.229   21.228   21.222   21.199   21.146
 (dLV/dLP)t      -1.00866 -1.00517 -1.00000 -1.00001 -1.00004 -1.00019 -1.00073 -1.00201
 (dLV/dLT)p        1.1564   1.1004   1.0001   1.0002   1.0012   1.0050   1.0173   1.0436
 Cp, KJ/(KG)(K)    3.3023   2.9266   2.0389   2.0392   2.0601   2.1176   2.2558   2.4923
 GAMMAs            1.1801   1.1884   1.2378   1.2379   1.2354   1.2295   1.2184   1.2045
 SON VEL,M/SEC     1257.2   1207.1    853.1    887.0    947.0   1008.6   1075.8   1136.4
 MACH NUMBER        0.000    1.000    3.435    3.207    2.824    2.444    2.023    1.607

 PERFORMANCE PARAMETERS

 Ae/At                      1.0000   11.414   8.4746   5.1479   3.1830   1.9476   1.3097
 CSTAR, M/SEC               1792.9   1792.9   1792.9   1792.9   1792.9   1792.9   1792.9
 CF                         0.6733   1.6346   1.5867   1.4914   1.3747   1.2139   1.0187
 Ivac, M/SEC                2222.9   3131.3   3068.2   2945.5   2800.4   2612.9   2413.5
 Isp, M/SEC                 1207.1   2930.6   2844.8   2674.0   2464.7   2176.4   1826.5

 MASS FRACTIONS

 *CO              0.56421  0.55944  0.48775  0.50057  0.51868  0.53266  0.54409  0.55199
 *CO2             0.16301  0.17058  0.28327  0.26313  0.23468  0.21271  0.19475  0.18233
 COOH             0.00003  0.00001  0.00000  0.00000  0.00000  0.00000  0.00000  0.00000
 *H               0.00089  0.00059  0.00000  0.00000  0.00001  0.00003  0.00011  0.00026
 HCO              0.00006  0.00003  0.00000  0.00000  0.00000  0.00000  0.00000  0.00001
 HO2              0.00001  0.00000  0.00000  0.00000  0.00000  0.00000  0.00000  0.00000
 *H2              0.01828  0.01857  0.02393  0.02301  0.02170  0.02068  0.01980  0.01916
 HCOOH            0.00001  0.00001  0.00000  0.00000  0.00000  0.00000  0.00000  0.00000
 H2O              0.24229  0.24474  0.20504  0.21329  0.22492  0.23383  0.24073  0.24436
 *O               0.00050  0.00019  0.00000  0.00000  0.00000  0.00000  0.00000  0.00003
 *OH              0.01013  0.00564  0.00000  0.00000  0.00001  0.00009  0.00051  0.00183
 *O2              0.00058  0.00022  0.00000  0.00000  0.00000  0.00000  0.00000  0.00003

  * THERMODYNAMIC PROPERTIES FITTED TO 20000.K

 NOTE. WEIGHT FRACTION OF FUEL IN TOTAL FUELS AND OF OXIDANT IN TOTAL OXIDANTS

              THEORETICAL ROCKET PERFORMANCE ASSUMING EQUILIBRIUM

           COMPOSITION DURING EXPANSION FROM INFINITE AREA COMBUSTOR

 Pin =  1500.0 PSIA
 CASE = _______________

             REACTANT                    WT FRACTION      ENERGY      TEMP
                                          (SEE NOTE)     KJ/KG-MOL      K
 FUEL        RP-1                         1.0000000    -24717.700    298.150
 OXIDANT     O2(L)                        1.0000000    -12979.000     90.170

 O/F=    2.00000  %FUEL= 33.333333  R,EQ.RATIO= 1.702833  PHI,EQ.RATIO= 1.702833

                 CHAMBER   THROAT     EXIT     EXIT
 Pinf/P            1.0000   1.7650   2.0000   1.0000
 P, BAR            103.42   58.595   51.710   103.42
 T, K             3363.64  3099.57  3042.05  3363.64
 RHO, KG/CU M    7.7219 0 4.7787 0 4.3021 0 7.7219 0
 H, KJ/KG         -859.93 -1588.46 -1740.20  -859.93
 U, KJ/KG        -2199.25 -2814.62 -2942.19 -2199.25
 G, KJ/KG        -40215.6 -37854.5 -37333.1 -40215.6
 S, KJ/(KG)(K)    11.7003  11.7003  11.7003  11.7003

 M, (1/n)          20.882   21.018   21.043   20.882
 MW, MOL WT        20.882   21.018   21.043   20.882
 (dLV/dLP)t      -1.00866 -1.00517 -1.00455 -1.00866
 (dLV/dLT)p        1.1564   1.1004   1.0898   1.1564
 Cp, KJ/(KG)(K)    3.3023   2.9266   2.8505   3.3023
 GAMMAs            1.1801   1.1884   1.1906   1.1801
 SON VEL,M/SEC     1257.2   1207.1   1196.3   1257.2
 MACH NUMBER        0.000    1.000    1.109    0.000

 PERFORMANCE PARAMETERS

 Ae/At                      1.0000   1.0105 1967525.
 CSTAR, M/SEC               1792.9   1792.9   1792.9
 CF                         0.6733   0.7401   0.0000
 Ivac, M/SEC                2222.9   2232.7*********
 Isp, M/SEC                 1207.1   1326.9      0.0

 MASS FRACTIONS

 *CO              0.56421  0.55944  0.55837  0.56421
 *CO2             0.16301  0.17058  0.17226  0.16301
 COOH             0.00003  0.00001  0.00001  0.00003
 *H               0.00089  0.00059  0.00053  0.00089
 HCO              0.00006  0.00003  0.00002  0.00006
 HO2              0.00001  0.00000  0.00000  0.00001
 *H2              0.01828  0.01857  0.01865  0.01828
 HCOOH            0.00001  0.00001  0.00001  0.00001
 H2O              0.24229  0.24474  0.24498  0.24229
 *O               0.00050  0.00019  0.00015  0.00050
 *OH              0.01013  0.00564  0.00486  0.01013
 *O2              0.00058  0.00022  0.00017  0.00058

  * THERMODYNAMIC PROPERTIES FITTED TO 20000.K

 NOTE. WEIGHT FRACTION OF FUEL IN TOTAL FUELS AND OF OXIDANT IN TOTAL OXIDANTS

              THEORETICAL ROCKET PERFORMANCE ASSUMING EQUILIBRIUM

           COMPOSITION DURING EXPANSION FROM INFINITE AREA COMBUSTOR

 Pin =  1500.0 PSIA
 CASE = _______________

             REACTANT                    WT FRACTION      ENERGY      TEMP
                                          (SEE NOTE)     KJ/KG-MOL      K
 FUEL        RP-1                         1.0000000    -24717.700    298.150
 OXIDANT     O2(L)                        1.0000000    -12979.000     90.170

 O/F=    3.00000  %FUEL= 25.000000  R,EQ.RATIO= 1.135222  PHI,EQ.RATIO= 1.135222

                 CHAMBER   THROAT     EXIT     EXIT     EXIT     EXIT     EXIT     EXIT
 Pinf/P            1.0000   1.7276   102.00   68.000   34.000   17.000   8.0000   4.0000
 P, BAR            103.42   59.863   1.0139   1.5209   3.0418   6.0836   12.928   25.855
 T, K             3763.13  3583.73  2554.41  2644.54  2799.75  2961.05  3148.04  3334.39
 RHO, KG/CU M    8.2187 0 5.0682 0 1.3205-1 1.8994-1 3.5390-1 6.5924-1 1.2948 0 2.4038 0
 H, KJ/KG         -746.35 -1412.91 -5311.68 -4993.71 -4418.53 -3801.13 -3077.54 -2359.22
 U, KJ/KG        -2004.70 -2594.06 -6079.50 -5794.45 -5278.04 -4723.94 -4075.95 -3434.81
 G, KJ/KG        -41288.2 -40022.0 -32831.5 -33484.5 -34581.5 -35701.8 -36992.8 -38282.0
 S, KJ/(KG)(K)    10.7734  10.7734  10.7734  10.7734  10.7734  10.7734  10.7734  10.7734

 M, (1/n)          24.865   25.227   27.661   27.460   27.084   26.679   26.216   25.775
 MW, MOL WT        24.865   25.227   27.661   27.460   27.084   26.679   26.216   25.775
 (dLV/dLP)t      -1.05015 -1.04650 -1.01404 -1.01773 -1.02384 -1.02960 -1.03550 -1.04062
 (dLV/dLT)p        1.8465   1.8270   1.3574   1.4353   1.5511   1.6449   1.7248   1.7802
 Cp, KJ/(KG)(K)    6.7933   6.8534   4.6683   5.1781   5.8675   6.3480   6.6744   6.8261
 GAMMAs            1.1334   1.1287   1.1168   1.1145   1.1136   1.1151   1.1184   1.1225
 SON VEL,M/SEC     1194.2   1154.6    926.0    944.7    978.4   1014.4   1056.7   1098.8
 MACH NUMBER        0.000    1.000    3.263    3.085    2.770    2.437    2.043    1.635

 PERFORMANCE PARAMETERS

 Ae/At                      1.0000   14.665   10.571   6.1015   3.5912   2.0930   1.3554
 CSTAR, M/SEC               1767.3   1767.3   1767.3   1767.3   1767.3   1767.3   1767.3
 CF                         0.6533   1.7098   1.6491   1.5334   1.3986   1.2218   1.0162
 Ivac, M/SEC                2177.6   3275.8   3189.3   3027.2   2845.1   2621.6   2394.9
 Isp, M/SEC                 1154.6   3021.7   2914.6   2710.1   2471.8   2159.3   1796.0

 MASS FRACTIONS

 *CO              0.28651  0.27195  0.16861  0.17734  0.19363  0.21107  0.23084  0.24939
 *CO2             0.33695  0.35987  0.52230  0.50859  0.48300  0.45558  0.42452  0.39536
 COOH             0.00005  0.00003  0.00000  0.00000  0.00000  0.00000  0.00001  0.00001
 *H               0.00093  0.00081  0.00022  0.00026  0.00034  0.00043  0.00054  0.00065
 HCO              0.00003  0.00002  0.00000  0.00000  0.00000  0.00000  0.00000  0.00001
 HO2              0.00034  0.00022  0.00000  0.00001  0.00002  0.00003  0.00006  0.00012
 *H2              0.00413  0.00389  0.00254  0.00262  0.00279  0.00301  0.00327  0.00353
 HCOOH            0.00001  0.00000  0.00000  0.00000  0.00000  0.00000  0.00000  0.00000
 H2O              0.23878  0.24574  0.28377  0.28112  0.27596  0.27007  0.26288  0.25555
 H2O2             0.00004  0.00003  0.00000  0.00000  0.00000  0.00000  0.00001  0.00001
 *O               0.01277  0.01053  0.00103  0.00151  0.00253  0.00384  0.00562  0.00761
 *OH              0.05674  0.04982  0.01098  0.01390  0.01933  0.02537  0.03264  0.04001
 *O2              0.06272  0.05708  0.01055  0.01466  0.02241  0.03060  0.03962  0.04775

  * THERMODYNAMIC PROPERTIES FITTED TO 20000.K

 NOTE. WEIGHT FRACTION OF FUEL IN TOTAL FUELS AND OF OXIDANT IN TOTAL OXIDANTS

              THEORETICAL ROCKET PERFORMANCE ASSUMING EQUILIBRIUM

           COMPOSITION DURING EXPANSION FROM INFINITE AREA COMBUSTOR

 Pin =  1500.0 PSIA
 CASE = _______________

             REACTANT                    WT FRACTION      ENERGY      TEMP
                                          (SEE NOTE)     KJ/KG-MOL      K
 FUEL        RP-1                         1.0000000    -24717.700    298.150
 OXIDANT     O2(L)                        1.0000000    -12979.000     90.170

 O/F=    3.00000  %FUEL= 25.000000  R,EQ.RATIO= 1.135222  PHI,EQ.RATIO= 1.135222

                 CHAMBER   THROAT     EXIT     EXIT
 Pinf/P            1.0000   1.7276   2.0000   1.0000
 P, BAR            103.42   59.863   51.710   103.42
 T, K             3763.13  3583.73  3538.12  3763.13
 RHO, KG/CU M    8.2187 0 5.0682 0 4.4514 0 8.2187 0
 H, KJ/KG         -746.35 -1412.91 -1584.40  -746.35
 U, KJ/KG        -2004.70 -2594.06 -2746.07 -2004.70
 G, KJ/KG        -41288.2 -40022.0 -39702.1 -41288.2
 S, KJ/(KG)(K)    10.7734  10.7734  10.7734  10.7734

 M, (1/n)          24.865   25.227   25.324   24.865
 MW, MOL WT        24.865   25.227   25.324   24.865
 (dLV/dLP)t      -1.05015 -1.04650 -1.04550 -1.05015
 (dLV/dLT)p        1.8465   1.8270   1.8203   1.8465
 Cp, KJ/(KG)(K)    6.7933   6.8534   6.8596   6.7933
 GAMMAs            1.1334   1.1287   1.1275   1.1334
 SON VEL,M/SEC     1194.2   1154.6   1144.5   1194.2
 MACH NUMBER        0.000    1.000    1.131     -nan

 PERFORMANCE PARAMETERS

 Ae/At                      1.0000   1.0154     -nan
 CSTAR, M/SEC               1767.3   1767.3   1767.3
 CF                         0.6533   0.7325     -nan
 Ivac, M/SEC                2177.6   2191.9     -nan
 Isp, M/SEC                 1154.6   1294.6     -nan

 MASS FRACTIONS

 *CO              0.28651  0.27195  0.26803  0.28651
 *CO2             0.33695  0.35987  0.36604  0.33695
 COOH             0.00005  0.00003  0.00003  0.00005
 *H               0.00093  0.00081  0.00078  0.00093
 HCO              0.00003  0.00002  0.00001  0.00003
 HO2              0.00034  0.00022  0.00020  0.00034
 *H2              0.00413  0.00389  0.00382  0.00413
 HCOOH            0.00001  0.00000  0.00000  0.00001
 H2O              0.23878  0.24574  0.24752  0.23878
 H2O2             0.00004  0.00003  0.00002  0.00004
 *O               0.01277  0.01053  0.00998  0.01277
 *OH              0.05674  0.04982  0.04804  0.05674
 *O2              0.06272  0.05708  0.05551  0.06272

  * THERMODYNAMIC PROPERTIES FITTED TO 20000.K

 NOTE. WEIGHT FRACTION OF FUEL IN TOTAL FUELS AND OF OXIDANT IN TOTAL OXIDANTS

              THEORETICAL ROCKET PERFORMANCE ASSUMING EQUILIBRIUM

           COMPOSITION DURING EXPANSION FROM INFINITE AREA COMBUSTOR

 Pin =  1500.0 PSIA
 CASE = _______________

             REACTANT                    WT FRACTION      ENERGY      TEMP
                                          (SEE NOTE)     KJ/KG-MOL      K
 FUEL        RP-1                         1.0000000    -24717.700    298.150
 OXIDANT     O2(L)                        1.0000000    -12979.000     90.170

 O/F=    4.00000  %FUEL= 20.000000  R,EQ.RATIO= 0.851417  PHI,EQ.RATIO= 0.851417

                 CHAMBER   THROAT     EXIT     EXIT     EXIT     EXIT     EXIT     EXIT
 Pinf/P            1.0000   1.7258   102.00   68.000   34.000   17.000   8.0000   4.0000
 P, BAR            103.42   59.925   1.0139   1.5209   3.0418   6.0836   12.928   25.855
 T, K             3687.91  3515.76  2527.93  2611.82  2759.33  2914.49  3095.09  3275.08
 RHO, KG/CU M    9.1278 0 5.6265 0 1.4500-1 2.0893-1 3.9008-1 7.2774-1 1.4315 0 2.6612 0
 H, KJ/KG         -678.20 -1277.68 -4808.37 -4519.07 -3996.75 -3437.06 -2782.07 -2132.77
 U, KJ/KG        -1811.24 -2342.74 -5507.64 -5247.02 -4776.53 -4273.01 -3685.17 -3104.34
 G, KJ/KG        -37920.7 -36781.7 -30336.7 -30894.6 -31861.9 -32869.1 -34038.0 -35206.3
 S, KJ/(KG)(K)    10.0985  10.0985  10.0985  10.0985  10.0985  10.0985  10.0985  10.0985

 M, (1/n)          27.063   27.446   30.058   29.832   29.422   28.988   28.496   28.028
 MW, MOL WT        27.063   27.446   30.058   29.832   29.422   28.988   28.496   28.028
 (dLV/dLP)t      -1.04764 -1.04418 -1.01628 -1.01907 -1.02391 -1.02876 -1.03398 -1.03867
 (dLV/dLT)p        1.8276   1.8079   1.4232   1.4786   1.5659   1.6423   1.7117   1.7627
 Cp, KJ/(KG)(K)    6.3048   6.3523   4.8441   5.1584   5.6101   5.9513   6.2007   6.3249
 GAMMAs            1.1301   1.1257   1.1103   1.1099   1.1106   1.1126   1.1159   1.1199
 SON VEL,M/SEC     1131.6   1095.0    881.1    898.9    930.6    964.4   1003.9   1043.1
 MACH NUMBER        0.000    1.000    3.262    3.083    2.768    2.436    2.043    1.635

 PERFORMANCE PARAMETERS

 Ae/At                      1.0000   14.783   10.639   6.1304   3.6039   2.0981   1.3573
 CSTAR, M/SEC               1678.7   1678.7   1678.7   1678.7   1678.7   1678.7   1678.7
 CF                         0.6523   1.7121   1.6510   1.5347   1.3993   1.2219   1.0160
 Ivac, M/SEC                2067.7   3117.4   3034.2   2878.9   2704.9   2491.5   2275.2
 Isp, M/SEC                 1095.0   2874.1   2771.6   2576.3   2349.0   2051.3   1705.6

 MASS FRACTIONS

 *CO              0.15582  0.14152  0.04235  0.05088  0.06645  0.08299  0.10179  0.11958
 *CO2             0.38490  0.40739  0.56324  0.54983  0.52537  0.49938  0.46985  0.44188
 COOH             0.00004  0.00002  0.00000  0.00000  0.00000  0.00000  0.00000  0.00001
 *H               0.00049  0.00042  0.00008  0.00010  0.00015  0.00019  0.00026  0.00032
 HCO              0.00001  0.00000  0.00000  0.00000  0.00000  0.00000  0.00000  0.00000
 HO2              0.00063  0.00044  0.00002  0.00003  0.00006  0.00009  0.00016  0.00025
 *H2              0.00167  0.00151  0.00050  0.00059  0.00075  0.00091  0.00110  0.00128
 H2O              0.20030  0.20575  0.23703  0.23460  0.23013  0.22522  0.21938  0.21352
 H2O2             0.00006  0.00004  0.00000  0.00000  0.00000  0.00001  0.00001  0.00002
 *O               0.01748  0.01494  0.00314  0.00386  0.00528  0.00698  0.00918  0.01155
 *OH              0.05963  0.05325  0.01723  0.01996  0.02502  0.03062  0.03735  0.04416
 *O2              0.17897  0.17470  0.13641  0.14014  0.14679  0.15359  0.16092  0.16741
 O3               0.00001  0.00000  0.00000  0.00000  0.00000  0.00000  0.00000  0.00000

  * THERMODYNAMIC PROPERTIES FITTED TO 20000.K

 NOTE. WEIGHT FRACTION OF FUEL IN TOTAL FUELS AND OF OXIDANT IN TOTAL OXIDANTS

              THEORETICAL ROCKET PERFORMANCE ASSUMING EQUILIBRIUM

           COMPOSITION DURING EXPANSION FROM INFINITE AREA COMBUSTOR

 Pin =  1500.0 PSIA
 CASE = _______________

             REACTANT                    WT FRACTION      ENERGY      TEMP
                                          (SEE NOTE)     KJ/KG-MOL      K
 FUEL        RP-1                         1.0000000    -24717.700    298.150
 OXIDANT     O2(L)                        1.0000000    -12979.000     90.170

 O/F=    4.00000  %FUEL= 20.000000  R,EQ.RATIO= 0.851417  PHI,EQ.RATIO= 0.851417

                 CHAMBER   THROAT     EXIT     EXIT
 Pinf/P            1.0000   1.7258   2.0000   1.0000
 P, BAR            103.42   59.925   51.710   103.42
 T, K             3687.91  3515.76  3471.53  3687.91
 RHO, KG/CU M    9.1278 0 5.6265 0 4.9355 0 9.1278 0
 H, KJ/KG         -678.20 -1277.68 -1433.42  -678.20
 U, KJ/KG        -1811.24 -2342.74 -2481.16 -1811.24
 G, KJ/KG        -37920.7 -36781.7 -36490.8 -37920.7
 S, KJ/(KG)(K)    10.0985  10.0985  10.0985  10.0985

 M, (1/n)          27.063   27.446   27.549   27.063
 MW, MOL WT        27.063   27.446   27.549   27.063
 (dLV/dLP)t      -1.04764 -1.04418 -1.04323 -1.04764
 (dLV/dLT)p        1.8276   1.8079   1.8013   1.8276
 Cp, KJ/(KG)(K)    6.3048   6.3523   6.3567   6.3048
 GAMMAs            1.1301   1.1257   1.1246   1.1301
 SON VEL,M/SEC     1131.6   1095.0   1085.5   1131.6
 MACH NUMBER        0.000    1.000    1.132    0.000

 PERFORMANCE PARAMETERS

 Ae/At                      1.0000   1.0157 988726.3
 CSTAR, M/SEC               1678.7   1678.7   1678.7
 CF                         0.6523   0.7321   0.0000
 Ivac, M/SEC                2067.7   2081.5*********
 Isp, M/SEC                 1095.0   1229.0      0.0

 MASS FRACTIONS

 *CO              0.15582  0.14152  0.13766  0.15582
 *CO2             0.38490  0.40739  0.41346  0.38490
 COOH             0.00004  0.00002  0.00002  0.00004
 *H               0.00049  0.00042  0.00040  0.00049
 HCO              0.00001  0.00000  0.00000  0.00001
 HO2              0.00063  0.00044  0.00040  0.00063
 *H2              0.00167  0.00151  0.00147  0.00167
 H2O              0.20030  0.20575  0.20717  0.20030
 H2O2             0.00006  0.00004  0.00004  0.00006
 *O               0.01748  0.01494  0.01430  0.01748
 *OH              0.05963  0.05325  0.05159  0.05963
 *O2              0.17897  0.17470  0.17348  0.17897
 O3               0.00001  0.00000  0.00000  0.00001

  * THERMODYNAMIC PROPERTIES FITTED TO 20000.K

 NOTE. WEIGHT FRACTION OF FUEL IN TOTAL FUELS AND OF OXIDANT IN TOTAL OXIDANTS

              THEORETICAL ROCKET PERFORMANCE ASSUMING EQUILIBRIUM

           COMPOSITION DURING EXPANSION FROM INFINITE AREA COMBUSTOR

 Pin =  1500.0 PSIA
 CASE = _______________

             REACTANT                    WT FRACTION      ENERGY      TEMP
                                          (SEE NOTE)     KJ/KG-MOL      K
 FUEL        RP-1                         1.0000000    -24717.700    298.150
 OXIDANT     O2(L)                        1.0000000    -12979.000     90.170

 O/F=    5.00000  %FUEL= 16.666667  R,EQ.RATIO= 0.681133  PHI,EQ.RATIO= 0.681133

                 CHAMBER   THROAT     EXIT     EXIT     EXIT     EXIT     EXIT     EXIT
 Pinf/P            1.0000   1.7273   102.00   68.000   34.000   17.000   8.0000   4.0000
 P, BAR            103.42   59.876   1.0139   1.5209   3.0418   6.0836   12.928   25.855
 T, K             3558.49  3385.49  2302.55  2407.32  2582.62  2757.33  2952.13  3140.23
 RHO, KG/CU M    9.9722 0 6.1469 0 1.6451-1 2.3498-1 4.3398-1 8.0380-1 1.5730 0 2.9156 0
 H, KJ/KG         -632.77 -1182.11 -4377.57 -4121.41 -3654.27 -3149.21 -2554.55 -1962.71
 U, KJ/KG        -1669.85 -2156.19 -4993.91 -4768.64 -4355.18 -3906.07 -3376.38 -2849.50
 G, KJ/KG        -34829.3 -33716.2 -26504.8 -27255.4 -28472.9 -29646.8 -30924.1 -32140.0
 S, KJ/(KG)(K)     9.6099   9.6099   9.6099   9.6099   9.6099   9.6099   9.6099   9.6099

 M, (1/n)          28.529   28.898   31.062   30.925   30.636   30.291   29.867   29.443
 MW, MOL WT        28.529   28.898   31.062   30.925   30.636   30.291   29.867   29.443
 (dLV/dLP)t      -1.03564 -1.03158 -1.00425 -1.00612 -1.01004 -1.01463 -1.02006 -1.02526
 (dLV/dLT)p        1.6465   1.6045   1.1242   1.1699   1.2577   1.3495   1.4452   1.5243
 Cp, KJ/(KG)(K)    5.2090   5.1088   2.6506   2.9610   3.5081   4.0222   4.4969   4.8348
 GAMMAs            1.1313   1.1279   1.1407   1.1340   1.1266   1.1232   1.1226   1.1242
 SON VEL,M/SEC     1083.1   1048.2    838.5    856.7    888.6    922.0    960.5    998.4
 MACH NUMBER        0.000    1.000    3.264    3.083    2.766    2.433    2.041    1.633

 PERFORMANCE PARAMETERS

 Ae/At                      1.0000   14.311   10.380   6.0395   3.5730   2.0892   1.3550
 CSTAR, M/SEC               1605.2   1605.2   1605.2   1605.2   1605.2   1605.2   1605.2
 CF                         0.6530   1.7050   1.6456   1.5315   1.3976   1.2214   1.0161
 Ivac, M/SEC                1977.5   2961.9   2886.5   2743.4   2580.8   2379.7   2174.7
 Isp, M/SEC                 1048.2   2736.7   2641.5   2458.3   2243.4   1960.5   1630.9

 MASS FRACTIONS

 *CO              0.08787  0.07578  0.00753  0.01139  0.01997  0.03066  0.04419  0.05793
 *CO2             0.38673  0.40574  0.51298  0.50692  0.49344  0.47663  0.45539  0.43379
 COOH             0.00002  0.00001  0.00000  0.00000  0.00000  0.00000  0.00000  0.00000
 *H               0.00025  0.00021  0.00001  0.00002  0.00004  0.00007  0.00010  0.00015
 HO2              0.00072  0.00050  0.00002  0.00003  0.00006  0.00010  0.00017  0.00028
 *H2              0.00082  0.00072  0.00009  0.00013  0.00022  0.00032  0.00044  0.00056
 H2O              0.17269  0.17739  0.20381  0.20198  0.19835  0.19420  0.18917  0.18410
 H2O2             0.00006  0.00004  0.00000  0.00000  0.00000  0.00001  0.00001  0.00002
 *O               0.01582  0.01319  0.00131  0.00192  0.00326  0.00496  0.00722  0.00968
 *OH              0.05081  0.04463  0.00887  0.01151  0.01659  0.02225  0.02901  0.03576
 *O2              0.28420  0.28179  0.26537  0.26610  0.26808  0.27080  0.27430  0.27773
 O3               0.00001  0.00000  0.00000  0.00000  0.00000  0.00000  0.00000  0.00000

  * THERMODYNAMIC PROPERTIES FITTED TO 20000.K

 NOTE. WEIGHT FRACTION OF FUEL IN TOTAL FUELS AND OF OXIDANT IN TOTAL OXIDANTS

              THEORETICAL ROCKET PERFORMANCE ASSUMING EQUILIBRIUM

           COMPOSITION DURING EXPANSION FROM INFINITE AREA COMBUSTOR

 Pin =  1500.0 PSIA
 CASE = _______________

             REACTANT                    WT FRACTION      ENERGY      TEMP
                                          (SEE NOTE)     KJ/KG-MOL      K
 FUEL        RP-1                         1.0000000    -24717.700    298.150
 OXIDANT     O2(L)                        1.0000000    -12979.000     90.170

 O/F=    5.00000  %FUEL= 16.666667  R,EQ.RATIO= 0.681133  PHI,EQ.RATIO= 0.681133

                 CHAMBER   THROAT     EXIT     EXIT
 Pinf/P            1.0000   1.7273   2.0000   1.0000
 P, BAR            103.42   59.876   51.710   103.42
 T, K             3558.49  3385.49  3341.02  3558.49
 RHO, KG/CU M    9.9722 0 6.1469 0 5.3974 0 9.9722 0
 H, KJ/KG         -632.77 -1182.11 -1323.74  -632.77
 U, KJ/KG        -1669.85 -2156.19 -2281.81 -1669.85
 G, KJ/KG        -34829.3 -33716.2 -33430.5 -34829.3
 S, KJ/(KG)(K)     9.6099   9.6099   9.6099   9.6099

 M, (1/n)          28.529   28.898   28.995   28.529
 MW, MOL WT        28.529   28.898   28.995   28.529
 (dLV/dLP)t      -1.03564 -1.03158 -1.03048 -1.03564
 (dLV/dLT)p        1.6465   1.6045   1.5919   1.6465
 Cp, KJ/(KG)(K)    5.2090   5.1088   5.0716   5.2090
 GAMMAs            1.1313   1.1279   1.1271   1.1313
 SON VEL,M/SEC     1083.1   1048.2   1039.2   1083.1
 MACH NUMBER        0.000    1.000    1.131     -nan

 PERFORMANCE PARAMETERS

 Ae/At                      1.0000   1.0155     -nan
 CSTAR, M/SEC               1605.2   1605.2   1605.2
 CF                         0.6530   0.7324     -nan
 Ivac, M/SEC                1977.5   1990.5     -nan
 Isp, M/SEC                 1048.2   1175.6     -nan

 MASS FRACTIONS

 *CO              0.08787  0.07578  0.07259  0.08787
 *CO2             0.38673  0.40574  0.41075  0.38673
 COOH             0.00002  0.00001  0.00001  0.00002
 *H               0.00025  0.00021  0.00020  0.00025
 HO2              0.00072  0.00050  0.00045  0.00072
 *H2              0.00082  0.00072  0.00069  0.00082
 H2O              0.17269  0.17739  0.17861  0.17269
 H2O2             0.00006  0.00004  0.00003  0.00006
 *O               0.01582  0.01319  0.01253  0.01582
 *OH              0.05081  0.04463  0.04302  0.05081
 *O2              0.28420  0.28179  0.28110  0.28420
 O3               0.00001  0.00000  0.00000  0.00001

  * THERMODYNAMIC PROPERTIES FITTED TO 20000.K

 NOTE. WEIGHT FRACTION OF FUEL IN TOTAL FUELS AND OF OXIDANT IN TOTAL OXIDANTS

