



             NASA-GLENN CHEMICAL EQUILIBRIUM PROGRAM CEA2, FEBRUARY 5, 2004
                       BY  BONNIE MCBRIDE AND SANFORD GORDON
          REFS: NASA RP-1311, PART I, 1994 AND NASA RP-1311, PART II, 1996

     *******************************************************************************


     ### CEA analysis performed on Fri 21-Apr-2023 00:37:07

     # Problem Type: "Rocket" (Infinite Area Combustor)

     prob case=_______________8863 ro equilibrium

     # Pressure (1 value):
     p,psia= 24842181
     # Chamber/Exit Pressure Ratio (1 value):
     pi/p= 1689944.28571

     # Oxidizer/Fuel Wt. ratio (1 value):
     o/f= 51.17651171

     # You selected the following fuels and oxidizers:
     reac
     fuel H2                wt%=100.0000
     oxid H2O2(L)           wt%=100.0000

     # You selected these options for output:
     # short version of output
     output short
     # Proportions of any products will be expressed as Mass Fractions.
     output massf
     # Heat will be expressed as siunits
     output siunits

     # Input prepared by this script:/var/www/sites/cearun.grc.nasa.gov/cgi-bin/CEARU
     N/prepareInputFile.cgi

     ### IMPORTANT:  The following line is the end of your CEA input file!
     end

                  THEORETICAL ROCKET PERFORMANCE ASSUMING EQUILIBRIUM

               COMPOSITION DURING EXPANSION FROM INFINITE AREA COMBUSTOR

     Pin =******** PSIA
     CASE = _______________

                 REACTANT                    WT FRACTION      ENERGY      TEMP
                                              (SEE NOTE)     KJ/KG-MOL      K
     FUEL        H2                           1.0000000         0.000      0.000
     OXIDANT     H2O2(L)                      1.0000000   -187780.000    272.740

??   O/F=   51.17651  %FUEL=  1.916571  R,EQ.RATIO= 0.664855  PHI,EQ.RATIO= 0.329709

                     CHAMBER   THROAT     EXIT
??   Pinf/P            1.0000   1.7725 1689944.
??   P, BAR          1712801. 966340.0   1.0135
??   T, K             2197.24  1999.61   361.99
??   RHO, KG/CU M    1.9546 5 1.2111 5 1.2031 0
??   H, KJ/KG        -5414.75 -5893.68 -9999.09
??   U, KJ/KG        -6291.06 -6691.57 -10083.3
??   G, KJ/KG        -21802.1 -20807.1 -12698.9
??   S, KJ/(KG)(K)     7.4582   7.4582   7.4582

??   M, (1/n)          20.848   20.837   35.728
??   MW, MOL WT        20.848   20.837   20.830
??   (dLV/dLP)t      -1.00046 -1.00019 -2.89617
??   (dLV/dLT)p        0.9950   0.9978  27.0474
??   Cp, KJ/(KG)(K)    2.4551   2.3755  85.6927
??   GAMMAs            1.1910   1.2005   1.0995
??   SON VEL,M/SEC     1021.6    978.7    304.3
??   MACH NUMBER        0.000    1.000    9.949

     PERFORMANCE PARAMETERS

??   Ae/At                      1.0000  32536.8
??   CSTAR, M/SEC               1445.0   1445.0
??   CF                         0.6773   2.0955
??   Ivac, M/SEC                1793.9   3055.8
??   Isp, M/SEC                  978.7   3028.0

     MASS FRACTIONS

     HO2              0.00094  0.00040  0.00000
     H2O              0.68895  0.68999  0.33013
     H2O2             0.00259  0.00107  0.00000
     *OH              0.00035  0.00017  0.00000
     *O2              0.30714  0.30835  0.30924
     O3               0.00004  0.00001  0.00000
     H2O(L)           0.00000  0.00000  0.36063

      * THERMODYNAMIC PROPERTIES FITTED TO 20000.K

     NOTE. WEIGHT FRACTION OF FUEL IN TOTAL FUELS AND OF OXIDANT IN TOTAL OXIDANTS

